
**** 06/03/21 14:45:02 ********* PSpice 9.2 (Mar 2000) ******** ID# 1 ********

 * C:\KP_2021\BAX_OE.sch


 ****     CIRCUIT DESCRIPTION


******************************************************************************




* Schematics Version 9.2
* Thu Jun 03 11:07:20 2021



** Analysis setup **
.DC LIN V_V1 0 40 15m 
+ LIN I_I1 50u 500u 50u 
.LIB "C:\KP_2021\Diodes.lib"
.LIB "C:\KP_2021\bipolar.lib"
.LIB "C:\KP_2021\RUS_Q.LIB"


* From [PSPICE NETLIST] section of C:\Program Files\Orcad\PSpice\PSpice.ini:
.lib "nom.lib"
.lib "C:\KP_2021\bipolar.lib"
.lib "C:\KP_2021\Diodes.lib"
.lib "C:\KP_2021\RUS_Q.LIB"

.INC "BAX_OE.net"



**** INCLUDING BAX_OE.net ****
* Schematics Netlist *



I_I1         1 0 DC 0A  
Q_Q         2 1 0 KT814V 
V_V1         0 2 5

**** RESUMING BAX_OE.cir ****
.PROBE V(*) I(*) W(*) D(*) NOISE(*) 


.END

**** 06/03/21 14:45:02 ********* PSpice 9.2 (Mar 2000) ******** ID# 1 ********

 * C:\KP_2021\BAX_OE.sch


 ****     BJT MODEL PARAMETERS


******************************************************************************




               KT814V          
               PNP             
          IS   11.450000E-15 
          BF  102.8          
          NF    1            
         VAF  100            
         IKF     .2157       
         ISE   97.570000E-15 
          NE    1.421        
          BR    1.928        
          NR    1            
         IKR     .5927       
         ISC  637.600000E-15 
          NC    1.41         
          NK     .4096       
          RB    4            
          RC     .2979       
         CJE   71.140000E-12 
         MJE     .3333       
         CJC   88.730000E-12 
         MJC     .3333       
          TF   26.360000E-09 
         XTF    5            
         VTF   10            
         ITF    3            
          TR    2.046000E-06 
         XTB    1.5          
          CN    2.2          
           D     .52         



          JOB CONCLUDED

          TOTAL JOB TIME             .37
