
**** 03/22/21 15:50:44 ********* PSpice 9.2 (Mar 2000) ******** ID# 1 ********

 * \\vmware-host\Shared Folders\\LR_03 DO\LR3 2SO.sch


 ****     CIRCUIT DESCRIPTION


******************************************************************************




* Schematics Version 9.2
* Mon Mar 22 15:50:40 2021



** Analysis setup **
.tran 10ns 2m 0 3u
.LIB "C:\Diodes.lib"


* From [PSPICE NETLIST] section of C:\Program Files\Orcad\PSpice\PSpice.ini:
.lib "nom.lib"

.INC "LR3 2SO.net"



**** INCLUDING "LR3 2SO.net" ****
* Schematics Netlist *



R_R1         $N_0002 $N_0001  1040  
D_D1         $N_0001 $N_0003 KS147 
D_D2         0 $N_0003 KS147 
V_V1         $N_0002 0 DC 0 AC 0
+SIN 0 7.05 1k 0 0 0

**** RESUMING "LR3 2SO.cir" ****
.PROBE V(*) I(*) W(*) D(*) NOISE(*) 


.END

**** 03/22/21 15:50:44 ********* PSpice 9.2 (Mar 2000) ******** ID# 1 ********

 * \\vmware-host\Shared Folders\\LR_03 DO\LR3 2SO.sch


 ****     Diode MODEL PARAMETERS


******************************************************************************




               KS147           
          IS  880.500000E-18 
         ISR    1.859000E-09 
          BV    4.7          
         IBV     .020245     
         NBV    1.6989       
        IBVL    1.955600E-03 
        NBVL   14.976        
          RS     .25         
         CJO  175.000000E-12 
          VJ     .75         
           M     .5516       
        TBV1  -21.277000E-06 


**** 03/22/21 15:50:44 ********* PSpice 9.2 (Mar 2000) ******** ID# 1 ********

 * \\vmware-host\Shared Folders\\LR_03 DO\LR3 2SO.sch


 ****     INITIAL TRANSIENT SOLUTION       TEMPERATURE =   27.000 DEG C


******************************************************************************



 NODE   VOLTAGE     NODE   VOLTAGE     NODE   VOLTAGE     NODE   VOLTAGE


($N_0001)    0.0000                   ($N_0002)    0.0000                       

($N_0003)-379.6E-18                   




    VOLTAGE SOURCE CURRENTS
    NAME         CURRENT

    V_V1         0.000E+00

    TOTAL POWER DISSIPATION   0.00E+00  WATTS



          JOB CONCLUDED

          TOTAL JOB TIME             .03
