
**** 03/22/21 15:04:01 ********* PSpice 9.2 (Mar 2000) ******** ID# 1 ********

 * \\vmware-host\Shared Folders\\LR_03 DO\LR3 1PP_1C.sch


 ****     CIRCUIT DESCRIPTION


******************************************************************************




* Schematics Version 9.2
* Mon Mar 22 15:03:57 2021



** Analysis setup **
.tran 10ns 2.4m 0.8m 0.8u
.four 1250 3 v([2])


* From [PSPICE NETLIST] section of C:\Program Files\Orcad\PSpice\PSpice.ini:
.lib "nom.lib"

.INC "LR3 1PP_1C.net"



**** INCLUDING "LR3 1PP_1C.net" ****
* Schematics Netlist *



R_R1         0 2  1040  
V_V1         1 0  
+SIN 0 25 1250 0 0 0
D_D2         1 2 Dbreak 
C_C1         0 2  2.4u  

**** RESUMING "LR3 1PP_1C.cir" ****
.PROBE V(*) I(*) W(*) D(*) NOISE(*) 


.END

**** 03/22/21 15:04:01 ********* PSpice 9.2 (Mar 2000) ******** ID# 1 ********

 * \\vmware-host\Shared Folders\\LR_03 DO\LR3 1PP_1C.sch


 ****     Diode MODEL PARAMETERS


******************************************************************************




               Dbreak          
          IS   10.000000E-15 
          RS     .1          
         CJO  100.000000E-15 


**** 03/22/21 15:04:01 ********* PSpice 9.2 (Mar 2000) ******** ID# 1 ********

 * \\vmware-host\Shared Folders\\LR_03 DO\LR3 1PP_1C.sch


 ****     INITIAL TRANSIENT SOLUTION       TEMPERATURE =   27.000 DEG C


******************************************************************************



 NODE   VOLTAGE     NODE   VOLTAGE     NODE   VOLTAGE     NODE   VOLTAGE


(    1)    0.0000  (    2) 556.6E-30  




    VOLTAGE SOURCE CURRENTS
    NAME         CURRENT

    V_V1         0.000E+00

    TOTAL POWER DISSIPATION   0.00E+00  WATTS


**** 03/22/21 15:04:01 ********* PSpice 9.2 (Mar 2000) ******** ID# 1 ********

 * \\vmware-host\Shared Folders\\LR_03 DO\LR3 1PP_1C.sch


 ****     FOURIER ANALYSIS                 TEMPERATURE =   27.000 DEG C


******************************************************************************



FOURIER COMPONENTS OF TRANSIENT RESPONSE V(2)



 DC COMPONENT =   2.128495E+01

 HARMONIC   FREQUENCY    FOURIER    NORMALIZED    PHASE        NORMALIZED
    NO         (HZ)     COMPONENT    COMPONENT    (DEG)       PHASE (DEG)

     1     1.250E+03    2.133E+00    1.000E+00   -6.188E+01    0.000E+00
     2     2.500E+03    1.015E+00    4.759E-01   -1.279E+02   -4.175E+00
     3     3.750E+03    6.216E-01    2.914E-01    1.674E+02    3.531E+02


     TOTAL HARMONIC DISTORTION =   5.580403E+01 PERCENT


          JOB CONCLUDED

          TOTAL JOB TIME             .08
